LAMMPS (10 Mar 2021)
units lj
dimension 2
boundary p p p
atom_style ellipsoid
region t block 0 28.9 0 28.9 0 0.0289     #91.29
lattice sq 0.0289 # 0.009129
Lattice spacing in x,y,z = 5.8823529 5.8823529 5.8823529
create_box 2 t
Created orthogonal box = (0.0000000 0.0000000 0.0000000) to (28.900000 28.900000 0.028900000)
create_atoms 1 random 650 123456 t
Created 650 atoms
create_atoms 2 random 350  324567 t
Created 350 atoms
pair_style lj/cut 2.5 #cutoff 2.5
pair_coeff 1 1 1 1 # A A epsilon sigma
pair_coeff 1 2 1.5 0.80 # A B  epsilon sigma
pair_coeff  2 2 0.5 0.88 # B B  epsilon sigma
pair_modify shift yes
minimize          1.0e-4 1.0e-6 1000 1000 #minimize force and energy
  update every 1 steps, delay 0 steps, check yes
Step Temp E_pair E_mol TotEng Press
0            0 1.8717669e+24            0 1.8717669e+24 1.344644e+25
Loop time of 0.0599952 on 4 procs for 212 steps with 1000 atoms

Minimization stats:
  Stopping criterion = energy tolerance
  Energy initial, next-to-last, final =
  Force two-norm initial, final = 6.3836216e+30 16.125641
  Force max component initial, final = 4.5139021e+30 5.7824566
  Final line search alpha, max atom move = 0.020755512 0.12001784
  Iterations, force evaluations = 212 417

fix 1 all enforce2d
fix 2 all enforce2d
set type * shape 1.0 1.0 1.0
Setting atom values ...
  1000 settings made for shape
set type * quat/random 123456
Setting atom values ...
  1000 settings made for quat/random
fix step all brownian 1.0 1.0 123456 angdiff 1.0 exact
fix active all propel/self quat 0.5
neighbor 0.3 bin
thermo 10000
timestep 0.0001
run 1000000
Step Temp E_pair E_mol TotEng Press
212            0   -3.4148627            0   -3.4148627    6.4128376
Averages over the last 51 of 102 rows, steps 510000 to 1000212:
Temp E_pair E_mol TotEng Press
0 -2.74668 0 -2.74668 12.6258
Loop time of 216.839 on 4 procs for 1000000 steps with 1000 atoms

#set dump settings
# compute qdump all property/atom quatw quati quatj quatk #uncomment to print orientation quaternion incl next line

compute qvalues all hexorder/atom nnn 4 cutoff 1.06
dump traj all custom 50 traj_dump_young_q6.ATOM id type x y fx fy c_qvalues[*] #c_qdump[*] #uncomment for orientation

reset_timestep 0
fix step all brownian 0.25 1.0 123456 angdiff 1.0 exact
run 50000 #tw1
  update every 1 steps, delay 10 steps, check yes
Step Temp E_pair E_mol TotEng Press
0            0    -2.747178            0    -2.747178    12.674048
Loop time of 14.7508 on 4 procs for 50000 steps with 1000 atoms
